MatPower/Results/String_level/system_13_V1.m
%%%%%%%%%%%%%%%%%%%%%%%%%%%%%%%%%%%%%%%%%%%%%%%%%%%%%%%%%%%%%%%%%%%%%%%%%%%
% Task
% Authors: Farley Rimon & Marouane Mastouri
% Last edited: 16/05/2020
%
% This is a typical layout of an on-shore WPP. Parameters of system 
% components were taken from a on-shore WPP in Zeewolde.
%
% See Matpower user's manual for details on the case file format.
%%%%%%%%%%%%%%%%%%%%%%%%%%%%%%%%%%%%%%%%%%%%%%%%%%%%%%%%%%%%%%%%%%%%%%%%%%%
function mpc = system_13
%% MATPOWER Case Format : Version 2
mpc.version = '2';

%%-----  Power Flow Data  -----%%
%% system MVA base
mpc.baseMVA = 100;

%% bus data 
% bus_i	   type	    Pd	   Qd	    Gs	    Bs	   area	    Vm	    Va	    baseKV    zone	   Vmax	    Vmin
mpc.bus = [
	1       3       408.68    0       0       0       1       1       0        150      1       1.1424   0.8576;        
    2       1       0        0       0       0       1       1       0        150      1       1.1424   0.8576;
	3       1       0        0       0       0       1       1       0        150      1       1.1424   0.8576;
	4       1       0        0       0       0       1       1       0        33       1       1.1424   0.8576;
	5       1       0        0       0       0       1       1       0        150      1       1.1424   0.8576;  
	6       1       0        0       0       0       1       1       0        33       1       1.1424   0.8576;
    7       1       0        0       0    	 0       1       1       0        33       1       1.1424   0.8576;
   11       1       0        0       0    	 0       1       1       0        33       1       1.1424   0.8576;
   12       1       0        0       0    	 0       1       1       0        33       1       1.1424   0.8576;
   16       1       0        0       0       0       1       1       0        33       1       1.1424   0.8576;
   17       1       0        0       0       0       1       1       0        33       1       1.1424   0.8576;
   22       1       0        0       0       0       1       1       0        33       1       1.1424   0.8576;
   23       1       0        0       0       0       1       1       0        33       1       1.1424   0.8576;
   27       1       0        0       0       0       1       1       0        33       1       1.1424   0.8576;
   28       4       0        0       0       -12     1       1       0        33       1       1.1424   0.8576;
   29       1       0        0       0       0       1       1       0        33       1       1.1424   0.8576;
   30       1       0        0       0       0       1       1       0        33       1       1.1424   0.8576;
   31       1       0        0       0       0       1       1       0        33       1       1.1424   0.8576;
   32       1       0        0       0       0       1       1       0        33       1       1.1424   0.8576;
   33       1       0        0       0       0       1       1       0        33       1       1.1424   0.8576;
   34       1       0        0       0       0       1       1       0        33       1       1.1424   0.8576;
   35       1       0        0       0       0       1       1       0        33       1       1.1424   0.8576;
   36       1       0        0       0       0       1       1       0        33       1       1.1424   0.8576;
   37       1       0        0       0       0       1       1       0        33       1       1.1424   0.8576;
   38       1       0        0       0       0       1       1       0        33       1       1.1424   0.8576;
   39       1       0        0       0       0       1       1       0        33       1       1.1424   0.8576;
   40       1       0        0       0       0       1       1       0        33       1       1.1424   0.8576;
   41       1       0        0       0       0       1       1       0        33       1       1.1424   0.8576;
   42       1       0        0       0       0       1       1       0        33       1       1.1424   0.8576;
   43       1       0        0       0       0       1       1       0        33       1       1.1424   0.8576;
   44       1       0        0       0       0       1       1       0        33       1       1.1424   0.8576;
   45       1       0        0       0       0       1       1       0        33       1       1.1424   0.8576;
   46       1       0        0       0       0       1       1       0        33       1       1.1424   0.8576;
   47       1       0        0       0       0       1       1       0        33       1       1.1424   0.8576;
   48       1       0        0       0       0       1       1       0        33       1       1.1424   0.8576;
   49       1       0        0       0       0       1       1       0        33       1       1.1424   0.8576;
   50       1       0        0       0       0       1       1       0        33       1       1.1424   0.8576;
   51       1       0        0       0       0       1       1       0        33       1       1.1424   0.8576;
   52       1       0        0       0       0       1       1       0        33       1       1.1424   0.8576;
   53       1       0        0       0       0       1       1       0        33       1       1.1424   0.8576;
   54       1       0        0       0       0       1       1       0        33       1       1.1424   0.8576;
   55       1       0        0       0       0       1       1       0        33       1       1.1424   0.8576;
   56       1       0        0       0       0       1       1       0        33       1       1.1424   0.8576;
   57       1       0        0       0       0       1       1       0        33       1       1.1424   0.8576;
   58       1       0        0       0       0       1       1       0        33       1       1.1424   0.8576;
   59       1       0        0       0       0       1       1       0        33       1       1.1424   0.8576;
   60       1       0        0       0       0       1       1       0        33       1       1.1424   0.8576;
   61       1       0        0       0       0       1       1       0        33       1       1.1424   0.8576;
   62       1       0        0       0       0       1       1       0        33       1       1.1424   0.8576;
   63       1       0        0       0       0       1       1       0        33       1       1.1424   0.8576;
   64       1       0        0       0       0       1       1       0        33       1       1.1424   0.8576;
   65       1       0        0       0       0       1       1       0        33       1       1.1424   0.8576;
   66       1       0        0       0       0       1       1       0        33       1       1.1424   0.8576;
   67       1       0        0       0       0       1       1       0        33       1       1.1424   0.8576;
   68       1       0        0       0       0       1       1       0        33       1       1.1424   0.8576;
   69       1       0        0       0       0       1       1       0        33       1       1.1424   0.8576;
   70       1       0        0       0       0       1       1       0        33       1       1.1424   0.8576;
   71       1       0        0       0       0       1       1       0        33       1       1.1424   0.8576;
   72       1       0        0       0       0       1       1       0        33       1       1.1424   0.8576;
   73       1       0        0       0       0       1       1       0        33       1       1.1424   0.8576;
   74       1       0        0       0       0       1       1       0        33       1       1.1424   0.8576;
   75       1       0        0       0       0       1       1       0        33       1       1.1424   0.8576;
   76       1       0        0       0       0       1       1       0        33       1       1.1424   0.8576;
   77       1       0        0       0       0       1       1       0        33       1       1.1424   0.8576;
   78       1       0        0       0       0       1       1       0        33       1       1.1424   0.8576;
   79       1       0        0       0       0       1       1       0        33       1       1.1424   0.8576;
   80       1       0        0       0       0       1       1       0        33       1       1.1424   0.8576;
   81       1       0        0       0       0       1       1       0        33       1       1.1424   0.8576;
   82       1       0        0       0       0       1       1       0        33       1       1.1424   0.8576;
   83       1       0        0       0       0       1       1       0        33       1       1.1424   0.8576;
   84       1       0        0       0       0       1       1       0        33       1       1.1424   0.8576;
   85       1       0        0       0       0       1       1       0        33       1       1.1424   0.8576;
   86       1       0        0       0       0       1       1       0        33       1       1.1424   0.8576;
   87       1       0        0       0       0       1       1       0        33       1       1.1424   0.8576;
   88       1       0        0       0       0       1       1       0        33       1       1.1424   0.8576;
   89       1       0        0       0       0       1       1       0        33       1       1.1424   0.8576;
   90       1       0        0       0       0       1       1       0        33       1       1.1424   0.8576;
   91       1       0        0       0       0       1       1       0        33       1       1.1424   0.8576;
   92       1       0        0       0       0       1       1       0        33       1       1.1424   0.8576;
   93       1       0        0       0       0       1       1       0        33       1       1.1424   0.8576;
   94       1       0        0       0       0       1       1       0        33       1       1.1424   0.8576;
   95       1       0        0       0       0       1       1       0        33       1       1.1424   0.8576;
   96       1       0        0       0       0       1       1       0        33       1       1.1424   0.8576;
   97       1       0        0       0       0       1       1       0        33       1       1.1424   0.8576;
   98       1       0        0       0       0       1       1       0        33       1       1.1424   0.8576;
   99       1       0        0       0       0       1       1       0        33       1       1.1424   0.8576;
   100      1       0        0       0       0       1       1       0        33       1       1.1424   0.8576;
   101      1       0        0       0       0       1       1       0        33       1       1.1424   0.8576;
   102      1       0        0       0       0       1       1       0        33       1       1.1424   0.8576;
   103      1       0        0       0       0       1       1       0        33       1       1.1424   0.8576;
   104      1       0        0       0       0       1       1       0        33       1       1.1424   0.8576;
   105      1       0        0       0       0       1       1       0        33       1       1.1424   0.8576;
   106      1       0        0       0       0       1       1       0        33       1       1.1424   0.8576;
   107      1       0        0       0       0       1       1       0        33       1       1.1424   0.8576;
   108      1       0        0       0       0       1       1       0        33       1       1.1424   0.8576;
   109      1       0        0       0       0       1       1       0        33       1       1.1424   0.8576;
   110      1       0        0       0       0       1       1       0        33       1       1.1424   0.8576;
   111      1       0        0       0       0       1       1       0        33       1       1.1424   0.8576;
   112      1       0        0       0       0       1       1       0        33       1       1.1424   0.8576;
   113      1       0        0       0       0       1       1       0        33       1       1.1424   0.8576;
   114      1       0        0       0       0       1       1       0        33       1       1.1424   0.8576;
   115      1       0        0       0       0       1       1       0        33       1       1.1424   0.8576;
   116      1       0        0       0       0       1       1       0        33       1       1.1424   0.8576;
   117      1       0        0       0       0       1       1       0        33       1       1.1424   0.8576;
   118      1       0        0       0       0       1       1       0        33       1       1.1424   0.8576;
   119      1       0        0       0       0       1       1       0        33       1       1.1424   0.8576;
   120      1       0        0       0       0       1       1       0        33       1       1.1424   0.8576;
   121      1       0        0       0       0       1       1       0        33       1       1.1424   0.8576;
   122      1       0        0       0       0       1       1       0        33       1       1.1424   0.8576;
   123      1       0        0       0       0       1       1       0        33       1       1.1424   0.8576;
   124      1       0        0       0       0       1       1       0        33       1       1.1424   0.8576;
   125      1       0        0       0       0       1       1       0        33       1       1.1424   0.8576;
   126      1       0        0       0       0       1       1       0        33       1       1.1424   0.8576;
   127      1       0        0       0       0       1       1       0        33       1       1.1424   0.8576;
   128      1       0        0       0       0       1       1       0        33       1       1.1424   0.8576;
   129      1       0        0       0       0       1       1       0        33       1       1.1424   0.8576;
   130      1       0        0       0       0       1       1       0        0.4       1      1.1     0.9;
   131      1       0        0       0       0       1       1       0        0.4       1       1.1     0.9;
   132      1       0        0       0       0       1       1       0        0.63       1       1.1     0.9;
   133      1       0        0       0       0       1       1       0        0.63       1       1.1     0.9;
   134      1       0        0       0       0       1       1       0        0.63       1       1.1     0.9;
   135      1       0        0       0       0       1       1       0        0.63       1      1.1     0.9;
   136      1       0        0       0       0       1       1       0        0.4       1       1.1     0.9;
   137      1       0        0       0       0       1       1       0        0.63       1       1.1     0.9;
   138      1       0        0       0       0       1       1       0        0.63       1      1.1     0.9;
   139      1       0        0       0       0       1       1       0        0.63       1       1.1     0.9;
   140      1       0        0       0       0       1       1       0        0.63       1       1.1     0.9;
   141      1       0        0       0       0       1       1       0        0.63       1       1.1     0.9;
   142      1       0        0       0       0       1       1       0        0.63       1       1.1     0.9;
   143      1       0        0       0       0       1       1       0        0.63       1       1.1     0.9;
   144      1       0        0       0       0       1       1       0        0.63       1       1.1     0.9;
   145      1       0        0       0       0       1       1       0        0.63       1       1.1     0.9;
   146      1       0        0       0       0       1       1       0        0.4       1       1.1     0.9;
   147      1       0        0       0       0       1       1       0        0.4       1       1.1     0.9;
   148      1       0        0       0       0       1       1       0        0.4      1       1.1     0.9;
   149      1       0        0       0       0       1       1       0        0.63       1       1.1     0.9;
   150      1       0        0       0       0       1       1       0        0.63       1       1.1     0.9;
   151      1       0        0       0       0       1       1       0        0.63       1       1.1     0.9;
   152      1       0        0       0       0       1       1       0        0.4     1       1.1     0.9;
   153      1       0        0       0       0       1       1       0        0.4       1       1.1     0.9;
   154      1       0        0       0       0       1       1       0        0.4       1       1.1     0.9;
   155      1       0        0       0       0       1       1       0        0.63       1       1.1     0.9;
   156      1       0        0       0       0       1       1       0        0.63     1       1.1     0.9;
   157      1       0        0       0       0       1       1       0        0.63       1       1.1     0.9;
   158      1       0        0       0       0       1       1       0        0.63       1       1.1     0.9;
   159      1       0        0       0       0       1       1       0        0.4       1       1.1     0.9;
   160      1       0        0       0       0       1       1       0        0.4      1       1.1     0.9;
   161      1       0        0       0       0       1       1       0        0.4      1       1.1     0.9;
   162      1       0        0       0       0       1       1       0        0.4      1       1.1     0.9;
   163      1       0        0       0       0       1       1       0        0.4       1       1.1     0.9;
   164      1       0        0       0       0       1       1       0        0.4       1       1.1     0.9;
   165      1       0        0       0       0       1       1       0        0.4       1       1.1     0.9;
   166      1       0        0       0       0       1       1       0        0.4       1       1.1     0.9;
   167      1       0        0       0       0       1       1       0        0.4       1       1.1     0.9;
   168      1       0        0       0       0       1       1       0        0.4       1       1.1     0.9;
   169      1       0        0       0       0       1       1       0        0.4       1       1.1     0.9;
   170      1       0        0       0       0       1       1       0        0.4       1       1.1     0.9;
   171      1       0        0       0       0       1       1       0        0.4       1       1.1     0.9;
   172      1       0        0       0       0       1       1       0        0.4       1       1.1     0.9;
   173      1       0        0       0       0       1       1       0        0.4       1       1.1     0.9;
   174      1       0        0       0       0       1       1       0        0.4       1       1.1     0.9;
   175      1       0        0       0       0       1       1       0        0.4       1       1.1     0.9;
   176      1       0        0       0       0       1       1       0        0.4       1       1.1     0.9;
   177      1       0        0       0       0       1       1       0        0.4       1       1.1     0.9;
   178      1       0        0       0       0       1       1       0        0.4       1       1.1     0.9;
   179      1       0        0       0       0       1       1       0        0.4       1       1.1     0.9;
   180      1       0        0       0       0       1       1       0        0.4       1       1.1     0.9;
   181      1       0        0       0       0       1       1       0        0.63       1       1.1     0.9;
   182      1       0        0       0       0       1       1       0        0.63       1       1.1     0.9;
   183      1       0        0       0       0       1       1       0        0.4       1       1.1     0.9;
   184      1       0        0       0       0       1       1       0        0.4       1       1.1     0.9;
   185      1       0        0       0       0       1       1       0        0.4      1       1.1     0.9;
   186      1       0        0       0       0       1       1       0        0.4       1       1.1     0.9;
   187      1       0        0       0       0       1       1       0        0.4       1       1.1     0.9;
   188      1       0        0       0       0       1       1       0        0.4       1       1.1     0.9;
   189      1       0        0       0       0       1       1       0        0.4       1       1.1     0.9;
   190      1       0        0       0       0       1       1       0        0.4      1       1.1     0.9;
   191      1       0        0       0       0       1       1       0        0.4      1       1.1     0.9;
   192      1       0        0       0       0       1       1       0        0.4       1       1.1     0.9;
   193      1       0        0       0       0       1       1       0        0.4       1       1.1     0.9;
   194      1       0        0       0       0       1       1       0        0.4       1       1.1     0.9;
   195      1       0        0       0       0       1       1       0        0.4       1       1.1     0.9;
   196      1       0        0       0       0       1       1       0        0.4       1       1.1     0.9;
   197      1       0        0       0       0       1       1       0        0.4       1       1.1     0.9;
   198      1       0        0       0       0       1       1       0        0.4       1       1.1     0.9;
   199      1       0        0       0       0       1       1       0        0.4        1       1.1     0.9;
   200      1       0        0       0       0       1       1       0        0.63       1       1.1     0.9;
   201      1       0        0       0       0       1       1       0        0.63       1       1.1     0.9;
   202      1       0        0       0       0       1       1       0        0.63       1       1.1     0.9;
   203      1       0        0       0       0       1       1       0        0.63       1       1.1     0.9;
   204      1       0        0       0       0       1       1       0        0.63       1       1.1     0.9;
   205      1       0        0       0       0       1       1       0        0.63       1       1.1     0.9;
   206      1       0        0       0       0       1       1       0        0.63       1       1.1     0.9;
   207      1       0        0       0       0       1       1       0        0.63       1       1.1     0.9;
   208      1       0        0       0       0       1       1       0        0.63       1       1.1     0.9;
   209      1       0        0       0       0       1       1       0        0.63       1       1.1     0.9;
   210      1       0        0       0       0       1       1       0        0.63       1       1.1     0.9;
   211      1       0        0       0       0       1       1       0        0.63       1       1.1     0.9;
   212      1       0        0       0       0       1       1       0        0.63       1       1.1     0.9;
   213      1       0        0       0       0       1       1       0        0.63       1       1.1     0.9;
...
   ]; 
%% generator data
%% The Qmax and Qmin are set to 0 in order to test if the system convergs.
%% The generating strings as well as the strings are modeled in the generator data and bus data.
%  bus	Pg	      Qg	    Qmax	Qmin	Vg	    mBase  status   Pmax    Pmin	       Pc1	   Pc2	  Qc1min  Qc1max  Qc2min  Qc2max  ramp_agc  ramp_10  ramp_30  ramp_q  apf
mpc.gen = [
	1	0         0       0        0        1.0     100     1      408.68   0             0       0       0       0       0       0       0       0       0       0       0;
    11	12        4       4        4        1.0     100     1      12       12            0       0       0       0       0       0       0       0       0       0       0;
    16	12        4       4        4        1.0     100     1      12       12            0       0       0       0       0       0       0       0       0       0       0;
    22	12        4       4        4        1.0     100     1      12       12            0       0       0       0       0       0       0       0       0       0       0;
    27	12        4       4        4        1.0     100     1      12       12            0       0       0       0       0       0       0       0       0       0       0;
    130 4         2.8     2.8      2.8      1.0     100     1      4        4             0       0       0       0       0       0       0       0       0       0       0;                           
    131 4         2.8     2.8      2.8      1.0     100     1      4        4             0       0       0       0       0       0       0       0       0       0       0;
    132 4.2       2.8     2.8      2.8      1.0     100     1      4.2      4.2           0       0       0       0       0       0       0       0       0       0       0;       
    133 4.2       2.8     2.8      2.8      1.0     100     1      4.2      4.2           0       0       0       0       0       0       0       0       0       0       0;
    134 4.2       2.8     2.8      2.8      1.0     100     1      4.2      4.2           0       0       0       0       0       0       0       0       0       0       0;
    135 4.2       2.8     2.8      2.8      1.0     100     1      4.2      4.2           0       0       0       0       0       0       0       0       0       0       0;
    136 4         2.8     2.8      2.8      1.0     100     1      4        4             0       0       0       0       0       0       0       0       0       0       0;
    137 4.2       2.8     2.8      2.8      1.0     100     1      4.2      4.2           0       0       0       0       0       0       0       0       0       0       0;
    138 4.2       2.65    2.65     2.65     1.0     100     1      4.2      4.2           0       0       0       0       0       0       0       0       0       0       0;  
    139 4.2       2.65    2.65     2.65     1.0     100     1      4.2      4.2           0       0       0       0       0       0       0       0       0       0       0;
    140 4.2       2.65    2.65     2.65     1.0     100     1      4.2      4.2           0       0       0       0       0       0       0       0       0       0       0;       
    141 4.2       2.8     2.8      2.8      1.0     100     1      4.2      4.2           0       0       0       0       0       0       0       0       0       0       0;
    142 4.2       2.8     2.8      2.8      1.0     100     1      4.2      4.2           0       0       0       0       0       0       0       0       0       0       0;
    143 4.2       2.8     2.8      2.8      1.0     100     1      4.2      4.2           0       0       0       0       0       0       0       0       0       0       0;
    144 4.2       2.8     2.8      2.8      1.0     100     1      4.2      4.2           0       0       0       0       0       0       0       0       0       0       0;
    145 4.2       2.8     2.8      2.8      1.0     100     1      4.2      4.2           0       0       0       0       0       0       0       0       0       0       0;
    146 4         2.8     2.8      2.8      1.0     100     1      4        4             0       0       0       0       0       0       0       0       0       0       0;
    147 4         2.8     2.8      2.8      1.0     100     1      4        4             0       0       0       0       0       0       0       0       0       0       0;
    148 4         2.8     2.8      2.8      1.0     100     1      4        4             0       0       0       0       0       0       0       0       0       0       0;
    149 4.2       2.8     2.8      2.8      1.0     100     1      4.2      4.2           0       0       0       0       0       0       0       0       0       0       0;
    150 4.2       2.8     2.8      2.8      1.0     100     1      4.2      4.2           0       0       0       0       0       0       0       0       0       0       0;
    151 4.2       2.8     2.8      2.8      1.0     100     1      4.2      4.2           0       0       0       0       0       0       0       0       0       0       0;
    152 4         2.8     2.8      2.8      1.0     100     1      4        4             0       0       0       0       0       0       0       0       0       0       0; 
    153 4         2.8     2.8      2.8      1.0     100     1      4        4             0       0       0       0       0       0       0       0       0       0       0;
    154 4         2.8     2.8      2.8      1.0     100     1      4        4             0       0       0       0       0       0       0       0       0       0       0;
    155 4.2       2.8     2.8      2.8      1.0     100     1      4.2      4.2           0       0       0       0       0       0       0       0       0       0       0;
    156 4.2       2.8     2.8      2.8      1.0     100     1      4.2      4.2           0       0       0       0       0       0       0       0       0       0       0;
    157 4.2       2.8     2.8      2.8      1.0     100     1      4.2      4.2           0       0       0       0       0       0       0       0       0       0       0;
    158 4.2       2.8     2.8      2.8      1.0     100     1      4.2      4.2           0       0       0       0       0       0       0       0       0       0       0;
    159 2.35     0.85   0.85    0.85       1.0     100     1      2.35      2.35          0       0       0       0       0       0        0       0      0       0       0;
    160 2.35     0.85   0.85    0.85       1.0     100     1      2.35      2.35          0       0       0       0       0       0        0       0      0       0       0;
    161 2.35     0.85   0.85    0.85       1.0     100     1      2.35      2.35          0       0       0       0       0       0        0       0      0       0       0;
    162 2.35     0.85   0.85    0.85       1.0     100     1      2.35      2.35          0       0       0       0       0       0        0       0      0       0       0;
    163 2.35     0.85   0.85    0.85       1.0     100     1      2.35      2.35          0       0       0       0       0       0        0       0      0       0       0;
    164 2.35     0.85   0.85    0.85       1.0     100     1      2.35      2.35          0       0       0       0       0       0        0       0      0       0       0;
    165 2.35     0.85   0.85    0.85       1.0     100     1      2.35      2.35          0       0       0       0       0       0        0       0      0       0       0;
    166 2.35     0.85   0.85    0.85       1.0     100     1      2.35      2.35          0       0       0       0       0       0        0       0      0       0       0;
    167 2.35     0.85   0.85    0.85       1.0     100     1      2.35      2.35          0       0       0       0       0       0        0       0      0       0       0;
    168 4         2.8     2.8      2.8      1.0     100     1      4        4             0       0       0       0       0       0       0       0       0       0       0;
    169 4         2.8     2.8      2.8      1.0     100     1      4        4             0       0       0       0       0       0       0       0       0       0       0;
    170 4         2.8     2.8      2.8      1.0     100     1      4        4             0       0       0       0       0       0       0       0       0       0       0;
    171 4         2.8     2.8      2.8      1.0     100     1      4        4             0       0       0       0       0       0       0       0       0       0       0;
    172 4         2.8     2.8      2.8      1.0     100     1      4        4             0       0       0       0       0       0       0       0       0       0       0;
    173 4         2.8     2.8      2.8      1.0     100     1      4        4             0       0       0       0       0       0       0       0       0       0       0;
    174 4         2.8     2.8      2.8      1.0     100     1      4        4             0       0       0       0       0       0       0       0       0       0       0;
    175 4         2.8     2.8      2.8      1.0     100     1      4        4             0       0       0       0       0       0       0       0       0       0       0;
    176 4         2.8     2.8      2.8      1.0     100     1      4        4             0       0       0       0       0       0       0       0       0       0       0;
    177 4         2.8     2.8      2.8      1.0     100     1      4        4             0       0       0       0       0       0       0       0       0       0       0;
    178 4         2.8     2.8      2.8      1.0     100     1      4        4             0       0       0       0       0       0       0       0       0       0       0;
    179 4         2.8     2.8      2.8      1.0     100     1      4        4             0       0       0       0       0       0       0       0       0       0       0;
    180 4         2.8     2.8      2.8      1.0     100     1      4        4             0       0       0       0       0       0       0       0       0       0       0;
    181 4.2       2.65    2.65     2.65     1.0     100     1      4.2      4.2           0       0       0       0       0       0       0       0       0       0       0;
    182 4.2       2.65    2.65     2.65     1.0     100     1      4.2      4.2           0       0       0       0       0       0       0       0       0       0       0;
    183 4.2       2.8     2.8      2.8      1.0     100     1      4.2      4.2           0       0       0       0       0       0       0       0       0       0       0;
    184 4.2       2.8     2.8      2.8      1.0     100     1      4.2      4.2           0       0       0       0       0       0       0       0       0       0       0;
    185 4         2.8     2.8      2.8      1.0     100     1      4        4             0       0       0       0       0       0       0       0       0       0       0;
    186 4         2.8     2.8      2.8      1.0     100     1      4        4             0       0       0       0       0       0       0       0       0       0       0;
    187 4         2.8     2.8      2.8      1.0     100     1      4        4             0       0       0       0       0       0       0       0       0       0       0;
    188 4         2.8     2.8      2.8      1.0     100     1      4        4             0       0       0       0       0       0       0       0       0       0       0;
    189 4         2.8     2.8      2.8      1.0     100     1      4        4             0       0       0       0       0       0       0       0       0       0       0;
    190 4         2.8     2.8      2.8      1.0     100     1      4        4             0       0       0       0       0       0       0       0       0       0       0;
    191 4         2.8     2.8      2.8      1.0     100     1      4        4             0       0       0       0       0       0       0       0       0       0       0;
    192 4         2.8     2.8      2.8      1.0     100     1      4        4             0       0       0       0       0       0       0       0       0       0       0;
    193 4         2.8     2.8      2.8      1.0     100     1      4        4             0       0       0       0       0       0       0       0       0       0       0;
    194 4         2.8     2.8      2.8      1.0     100     1      4        4             0       0       0       0       0       0       0       0       0       0       0;
    195 4         2.8     2.8      2.8      1.0     100     1      4        4             0       0       0       0       0       0       0       0       0       0       0;
    196 4         2.8     2.8      2.8      1.0     100     1      4        4             0       0       0       0       0       0       0       0       0       0       0;
    197 4         2.8     2.8      2.8      1.0     100     1      4        4             0       0       0       0       0       0       0       0       0       0       0;
    198 4         2.8     2.8      2.8      1.0     100     1      4        4             0       0       0       0       0       0       0       0       0       0       0;
    199 4         2.8     2.8      2.8      1.0     100     1      4        4             0       0       0       0       0       0       0       0       0       0       0;
    200 4.2       2.65    2.65     2.65     1.0     100     1      4.2      4.2           0       0       0       0       0       0       0       0       0       0       0;
    201 4.2       2.65    2.65     2.65     1.0     100     1      4.2      4.2           0       0       0       0       0       0       0       0       0       0       0;
    202 4.2       2.65    2.65     2.65     1.0     100     1      4.2      4.2           0       0       0       0       0       0       0       0       0       0       0;
    203 4.2       2.65    2.65     2.65     1.0     100     1      4.2      4.2           0       0       0       0       0       0       0       0       0       0       0;
    204 4.2       2.65    2.65     2.65     1.0     100     1      4.2      4.2           0       0       0       0       0       0       0       0       0       0       0;
    205 4.2       2.65    2.65     2.65     1.0     100     1      4.2      4.2           0       0       0       0       0       0       0       0       0       0       0;
    206 4.2       2.65    2.65     2.65     1.0     100     1      4.2      4.2             0       0       0       0       0       0       0       0       0       0       0;
    207 4.2       2.65    2.65     2.65     1.0     100     1      4.2      4.2            0       0       0       0       0       0       0       0       0       0       0;
    208 4.2       2.65    2.65     2.65     1.0     100     1      4.2      4.2            0       0       0       0       0       0       0       0       0       0       0;
    209 4.2       2.65    2.65     2.65     1.0     100     1      4.2      4.2            0       0       0       0       0       0       0       0       0       0       0;
    210 4.2       2.65    2.65     2.65     1.0     100     1      4.2      4.2            0       0       0       0       0       0       0       0       0       0       0;
    211 4.2       2.65    2.65     2.65     1.0     100     1      4.2      4.2             0       0       0       0       0       0       0       0       0       0       0;
    212 4.2       2.65    2.65     2.65     1.0     100     1      4.2      4.2           0       0       0       0       0       0       0       0       0       0       0;
    213 4.2       2.65    2.65     2.65     1.0     100     1      4.2      4.2            0       0       0       0       0       0       0       0       0       0       0;
    214 4.2       2.8     2.8      2.8      1.0     100     1      4.2      4.2             0       0       0       0       0       0       0       0       0       0       0;
    215 4.2       2.8     2.8      2.8      1.0     100     1      4.2      4.2            0       0       0       0       0       0       0       0       0       0       0;
    216 4.2       2.8     2.8      2.8      1.0     100     1      4.2      4.2             0       0       0       0       0       0       0       0       0       0       0;
    217 4.2       2.8     2.8      2.8      1.0     100     1      4.2      4.2            0       0       0       0       0       0       0       0       0       0       0;
    218 4.2       2.65    2.65     2.65     1.0     100     1      4.2      4.2           0       0       0       0       0       0       0       0       0       0       0; 
    219 4.2       2.65    2.65     2.65     1.0     100     1      4.2      4.2            0       0       0       0       0       0       0       0       0       0       0;     
    220 4.2       2.65    2.65     2.65     1.0     100     1      4.2      4.2           0       0       0       0       0       0       0       0       0       0       0;
   %Equivalent grid
];

%% branch data

%%the p.u calculations are checked several times; lecture and the data of
%%ABB are used in order to find the right p.u values for the transformer.

% fbus  tbus	   r	              x	                        b	        rateA        rateB     rateC             ratio   angle   status	 ratiomax	ratiomin
mpc.branch = [
    %Main bus to transformer
    1   2       0.0003437777778     0.001960977778      0.1332427984         400       400       400              0       0        1       0        0;
    2	3       0.000005379555556	0.00001526222222	0.0008796145272       400       400       400              0       0        1       0        0;
    2   5       0.000003615377778	0.00001025711111	0.0005911527043       400       400       400              0       0        1       0        0;
    3	4       0                   0.0625              0.000692791866       240       240       240               1.0      0        1       1.153    0.867;
    5   6       0                   0.0625              0.000692791866       240       240       240               1.0      0        1       1.153    0.867;
    %%T01 and T02 to strings
    %String L:1470m
    4   7       0.00003340220386	0.0001905417815     0.0002600107744       185.19            185.19          185.19                 0        0       1        0        0;                                                                                                                                  
    7   36      0.001309366391      0.007469237833	0.005733237576            46.2977           46.2977         46.2977            0        0       1        0        0;
    36  31      0.00003205081114	0.0001846036119	0.0001329134024           46.2977           46.2977         46.2977         0        0       1        0        0;           
    31  30      0.0009345546373     0.003526997245	0.002138109652            36.86             36.86           36.86                 0        0       1        0        0;                   
    30  29      0.002249770432      0.003527640037	0.001327697123            20.86             20.86           20.86                 0        0       1        0        0;      
    29  129     0.002230639731      0.003497643098	0.001316407181            20.86             20.86           20.86                 0        0       1        0        0;
    31  35      0.002027854301      0.003179675543	0.001196733801            20.86             20.86           20.86                 0        0       1        0        0;
    35  34      0.0008900520355     0.003359044995	0.002036294907            36.86             36.86           36.86                 0        0       1        0        0;                 
    30  33      0.007916284053      0.01241273339	0.004671777801            20.86             20.86           20.86                 0        0       1        0        0;      
    33  32      0.002452555862      0.003845607591	0.001447370503            20.86             20.86           20.86                 0        0       1        0        0;
    %WTG's 
    31  137     2.595112119         3.924655208	0.0000001066097896            4.6               4.6             4.6                   0        0       1        0        0;
    35  136     6.866666667         8.266666667	0.00000004584212001           4.5               4.5             4.5                   0        0       1        0        0;     
    34  135     2.595112119         3.924655208	0.0000001066097896            4.6               4.6             4.6                   0        0       1        0        0;
    30  132     2.595112119         3.924655208	0.0000001066097896            4.6               4.6             4.6                   0        0       1        0        0;
    33  134     2.595112119         3.924655208	0.0000001066097896            4.6               4.6             4.6                   0        0       1        0        0;
    32  133     2.595112119         3.924655208	0.0000001066097896            4.6               4.6             4.6                   0        0       1        0        0;     
    29  131     6.866666667         8.266666667	0.00000004584212001           4.5               4.5             4.5                   0        0       1        0        0;       
    129 130     6.866666667         8.266666667	0.00000004584212001           4.5               4.5             4.5                   0        0       1        0        0;     
    %String L: 2993m
    7   44      0.00266594123	0.01520777472	0.01167318372               46.2977           46.2977         46.2977          0        0       1        0        0;
    44  43      0.00003205081114	0.0001846036119	0.0001329134024         46.2977           46.2977         46.2977          0        0       1        0        0;              
    43  42      0.0008599051117	0.003245270891	0.001967323628              36.86             36.86           36.86                 0        0       1        0        0;                    
    42  41      0.0008670829507	0.003272359963	0.001983745361              36.86             36.86           36.86                 0        0       1        0        0;                         
    41  40      0.001430119376	0.00348362412	0.001598450448              28.29             28.29           28.29                    0        0       1        0        0;      
    40  39      0.002291857974	0.003593633303	0.001352534994              20.86             20.86           20.86                 0        0       1        0        0;      
    39  38      0.002069941843	0.003245668809	0.001221571673              20.86             20.86           20.86                 0        0       1        0        0;      
    38  37      0.003278849097	0.003310682583	0.00101404202               16.28             16.28           16.28                  0        0       1        0        0;
    %WTG's
    43  144     2.595112119	3.924655208	0.0000001066097896                  4.6               4.6             4.6                   0        0       1        0        0;
    42  143     2.595112119	3.924655208	0.0000001066097896                  4.6               4.6             4.6                   0        0       1        0        0;
    41  142     2.595112119	3.924655208	0.0000001066097896                  4.6               4.6             4.6                   0        0       1        0        0;
    40  141     2.595112119	3.924655208	0.0000001066097896                  4.6               4.6             4.6                   0        0       1        0        0;
    39  140     3.806164441	3.843117494	0.0000001563610248                  5                 5               5                     0        0       1        0        0;
    38  139     3.806164441	3.843117494	0.0000001563610248                  5                 5               5                     0        0       1        0        0;
    37  138     3.806164441	3.843117494	0.0000001563610248                  5                 5               5                     0        0       1        0        0;
    %string L:1785m
    7   52      0.001589944904	0.009069788797	0.006961788485                  46.2977           46.2977         46.2977          0        0       1        0        0;        
    52  48      0.00003205081114	0.0001846036119	0.0001329134024             46.2977           46.2977         46.2977          0        0       1        0        0;      
    48  47      0.001253443526	0.003053259871	0.001400979107                  28.29             28.29           28.29                 0        0       1        0        0;      
    47  46      0.002050811142	0.00321567187	0.001210281731                  20.86             20.86           20.86                 0        0       1        0        0;                        
    47  49      0.0113292011	0.01776418733	0.006685903369                  20.86             20.86           20.86                 0        0       1        0        0;      
    46  45      0.002050811142	0.00321567187	0.001210281731                  20.86             20.86           20.86                 0        0       1        0        0;      
    48  51      0.002027854301	0.003179675543	0.001196733801                  20.86             20.86           20.86                 0        0       1        0        0;      
    51  50      0.0020087236	0.003149678604	0.00118544386                   20.86             20.86           20.86                 0        0       1        0        0;      
    %WTG's
    48  149     2.595112119	3.924655208	0.0000001066097896                  4.6               4.6             4.6                   0        0       1        0        0;
    51  151     2.595112119	3.924655208	0.0000001066097896                  4.6               4.6             4.6                   0        0       1        0        0;
    50  150     2.595112119	3.924655208	0.0000001066097896                  4.6               4.6             4.6                   0        0       1        0        0;       
    47  148     6.866666667	8.266666667	0.00000004584212001                 4.5               4.5             4.5                   0        0       1        0        0;
    49  147     6.866666667	8.266666667	0.00000004584212001                 4.5               4.5             4.5                   0        0       1        0        0;
    46  146     6.866666667	8.266666667	0.00000004584212001                 4.5               4.5             4.5                   0        0       1        0        0;
    45  145     2.595112119	3.924655208	0.0000001066097896                  4.6               4.6             4.6                   0        0       1        0        0;              
    %PV Farm
    7   11      0.002525206612	0.01440495868	0.01105695818                   46.2977           46.2977         46.2977          0        0       1        0        0;
    7   12      0.0000118466483     0.00006757881849     0.0000518721495        46.2977           46.2977         46.2977         0        0       0        0        0;
    6   12      0.00006680440771     0.0003810835629     0.0005200215488        185.19            185.19           185.19               0        0       1        0        0;
    %String L=3202
    12  60      0.002852102847	0.01626972758	0.0124883175                    46.2977       46.2977       46.2977          0        0       1        0        0;
    60  59      0.00003205081114	0.0001846036119	0.0001329134024             46.2977       46.2977       46.2977          0        0       1        0        0;      
    59  58      0.001276424855	0.003117232935	0.001430332955                  28.29             28.29           28.29                 0        0       1        0        0;
    58  57      0.0007766421794	0.002931037649	0.001776831524                  36.86             36.86           36.86                 0        0       1        0        0;
    57  56      0.0007694643404	0.002903948577	0.001760409791                  36.86             36.86           36.86                 0        0       1        0        0;
    56  55      0.002050811142	0.00321567187	0.001210281731                  20.86             20.86           20.86                 0        0       1        0        0;      
    55  54      0.003379736762	0.00341254974	0.001045243313                  16.28             16.28           16.28                 0        0       1        0        0;      
    54  53      0.003707621671	0.003743617998	0.001146647515                  16.28             16.28           16.28                 0        0       1        0        0;      
    %WTG's 
    59  158     2.595112119	3.924655208	0.0000001066097896                  4.6               4.6             4.6                   0        0       1        0        0;
    58  157     2.595112119	3.924655208	0.0000001066097896                  4.6               4.6             4.6                   0        0       1        0        0;
    57  156     2.595112119	3.924655208	0.0000001066097896                  4.6               4.6             4.6                   0        0       1        0        0;
    56  155     2.595112119	3.924655208	0.0000001066097896                  4.6               4.6             4.6                   0        0       1        0        0;
    55  154     6.866666667	8.266666667	0.00000004584212001                 4.5               4.5             4.5                   0        0       1        0        0;
    54  153     6.866666667	8.266666667	0.00000004584212001                 4.5               4.5             4.5                   0        0       1        0        0;
    53  152     6.866666667	8.266666667	0.00000004584212001                 4.5               4.5             4.5                   0        0       1        0        0;
    %String L=7833
    12  72      0.006977052342	0.03980036731	0.03054996594                     46.2977       46.2977       46.2977          0        0       1        0        0;
    72  71      0.00003205081114	0.0001846036119	0.0001329134024               46.2977       46.2977       46.2977          0        0       1        0        0;      
    71  70      0.0007235261708	0.002730578512	0.001655310699                    36.86             36.86           36.86                 0        0       1        0        0;      
    70  69      0.001273348638	0.004805601469	0.002913215456                    36.86             36.86           36.86                 0        0       1        0        0;      
    69  68      0.0007838200184	0.002958126722	0.001793253257                    36.86             36.86           36.86                 0        0       1        0        0;      
    68  67      0.001288331803	0.003146311601	0.001443675613                    28.29             28.29           28.29                 0        0       1        0        0;                          
    67  66      0.001176406489	0.002872972146	0.001318254626                    28.29             28.29           28.29                 0        0       1        0        0;      
    66  65      0.001276424855	0.003117232935	0.001430332955                    28.29             28.29           28.29                 0        0       1        0        0;      
    65  64      0.002169421488	0.003401652893	0.001280279368                    20.86             20.86           20.86                 0        0       1        0        0;      
    64  63      0.002108203245	0.003305662687	0.001244151556                    20.86             20.86           20.86                 0        0       1        0        0;      
    63  62      0.003474318947	0.003508050199	0.001074494525                    16.28             16.28           16.28                 0        0       1        0        0;      
    62  61      0.003247321702	0.003278849097	0.001004291616                    16.28             16.28           16.28                 0        0       1        0        0;      
    %WTG's 
    71  169     6.866666667	8.266666667	0.00000004584212001                 4.5               4.5             4.5                   0        0       1        0        0;
    70  168     6.866666667	8.266666667	0.00000004584212001                 4.5               4.5             4.5                   0        0       1        0        0;
    69  167     6.866666667	9.333333333	0.00000004584212001                 2.5               2.5             2.5                   0        0       1        0        0;
    68  166     6.866666667	9.333333333	0.00000004584212001                 2.5               2.5             2.5                   0        0       1        0        0;
    67  162     6.866666667	9.333333333	0.00000004584212001                 2.5               2.5             2.5                   0        0       1        0        0;
    66  165     6.866666667	9.333333333	0.00000004584212001                 2.5               2.5             2.5                   0        0       1        0        0;
    65  161     6.866666667	9.333333333	0.00000004584212001                 2.5               2.5             2.5                   0        0       1        0        0;
    64  164     6.866666667	9.333333333	0.00000004584212001                 2.5               2.5             2.5                   0        0       1        0        0;
    63  160     6.866666667	9.333333333	0.00000004584212001                 2.5               2.5             2.5                   0        0       1        0        0;
    62  163     6.866666667	9.333333333	0.00000004584212001                 2.5               2.5             2.5                   0        0       1        0        0;
    61  159     6.866666667	9.333333333	0.00000004584212001                 2.5               2.5             2.5                   0        0       1        0        0;
    %String L=4694
    12  79      0.004181065197	0.02385074992	0.01830735863                  46.2977       46.2977       46.2977          0        0       1        0        0;
    79  78      0.00003205081114	0.0001846036119	0.0001329134024            46.2977       46.2977       46.2977          0        0       1        0        0;      
    78  77      0.0007464952556	0.002817263545	0.001707860245                 36.86             36.86           36.86                 0        0       1        0        0;      
    77  76      0.000700557086	0.00264389348	0.001602761153                 36.86             36.86           36.86                 0        0       1        0        0;      
    76  75      0.001188313437	0.002902050811	0.001331597284                 28.29             28.29           28.29                 0        0       1        0        0;                              
    75  74      0.001909243955	0.002993694521	0.001126736164                 20.86             20.86           20.86                 0        0       1        0        0;                       
    74  73      0.003146434037	0.003176981941	0.0009730903233                16.28             16.28           16.28                 0        0       1        0        0;      
    73  72      0.003146434037	0.003176981941	0.0009730903233                16.28             16.28           16.28                 0        0       1        0        0;      
    %WTG's
    78  176     6.866666667	8.266666667	0.00000004584212001                 4.5               4.5             4.5                   0        0       1        0        0;
    77  175     6.866666667	8.266666667	0.00000004584212001                 4.5               4.5             4.5                   0        0       1        0        0;
    76  174     6.866666667	8.266666667	0.00000004584212001                 4.5               4.5             4.5                   0        0       1        0        0;
    75  173     6.866666667	8.266666667	0.00000004584212001                 4.5               4.5             4.5                   0        0       1        0        0;
    74  172     6.866666667	8.266666667	0.00000004584212001                 4.5               4.5             4.5                   0        0       1        0        0;
    73  171     6.866666667	8.266666667	0.00000004584212001                 4.5               4.5             4.5                   0        0       1        0        0;
    72  170     6.866666667	8.266666667	0.00000004584212001                 4.5               4.5             4.5                   0        0       1        0        0;
    %PV farm
    12  16      0.00329835629	0.01881536578	0.01444229846                46.2977       46.2977       46.2977          0        0       1        0        0;
    12  17      0.00005317630854	0.0003033425161    0.0002328396485       46.2977       46.2977       46.2977          0        0       1        0        0;
...